
OS:Version,
  {a3309fa9-a967-43d3-822b-d27813a2c1e2}, !- Handle
  3.11.0;                                 !- Version Identifier

OS:Building,
  {98d77a66-4ab1-481a-813e-4f57b519e8e1}, !- Handle
  OS-MIN-001,                             !- Name
  ,                                       !- Building Sector Type
  0,                                      !- North Axis {deg}
  ,                                       !- Nominal Floor to Floor Height {m}
  ,                                       !- Space Type Name
  ,                                       !- Default Construction Set Name
  ;                                       !- Default Schedule Set Name

OS:YearDescription,
  {97a5f49c-49ca-439e-b235-8b4b14c851a9}, !- Handle
  2024,                                   !- Calendar Year
  ,                                       !- Day of Week for Start Day
  ;                                       !- Is Leap Year

OS:Site,
  {f717c6df-bd8e-41ac-a768-26ee9772ab25}, !- Handle
  Madrid-Barajas Reference,               !- Name
  40.47,                                  !- Latitude {deg}
  -3.56,                                  !- Longitude {deg}
  1,                                      !- Time Zone {hr}
  609,                                    !- Elevation {m}
  ;                                       !- Terrain

OS:SizingPeriod:DesignDay,
  {0a965832-ac42-4b88-b938-ba6aa4f308e0}, !- Handle
  MADRID-SUMMER-REFERENCE,                !- Name
  36,                                     !- Maximum Dry-Bulb Temperature {C}
  12,                                     !- Daily Dry-Bulb Temperature Range {deltaC}
  101325,                                 !- Barometric Pressure {Pa}
  3,                                      !- Wind Speed {m/s}
  180,                                    !- Wind Direction {deg}
  1,                                      !- Sky Clearness
  No,                                     !- Rain Indicator
  No,                                     !- Snow Indicator
  21,                                     !- Day of Month
  7,                                      !- Month
  SummerDesignDay,                        !- Day Type
  ,                                       !- Daylight Saving Time Indicator
  Wetbulb,                                !- Humidity Condition Type
  ,                                       !- Humidity Condition Day Schedule Name
  20,                                     !- Wetbulb or DewPoint at Maximum Dry-Bulb {C}
  ,                                       !- Humidity Ratio at Maximum Dry-Bulb {kgWater/kgDryAir}
  ,                                       !- Enthalpy at Maximum Dry-Bulb {J/kg}
  ,                                       !- Dry-Bulb Temperature Range Modifier Type
  ,                                       !- Dry-Bulb Temperature Range Modifier Day Schedule Name
  ASHRAEClearSky;                         !- Solar Model Indicator

OS:SizingPeriod:DesignDay,
  {68fd2eaa-1157-40ad-aa60-2e7ed541ad59}, !- Handle
  MADRID-WINTER-REFERENCE,                !- Name
  -3,                                     !- Maximum Dry-Bulb Temperature {C}
  0,                                      !- Daily Dry-Bulb Temperature Range {deltaC}
  101325,                                 !- Barometric Pressure {Pa}
  4,                                      !- Wind Speed {m/s}
  0,                                      !- Wind Direction {deg}
  0,                                      !- Sky Clearness
  No,                                     !- Rain Indicator
  No,                                     !- Snow Indicator
  21,                                     !- Day of Month
  1,                                      !- Month
  WinterDesignDay,                        !- Day Type
  ,                                       !- Daylight Saving Time Indicator
  Wetbulb,                                !- Humidity Condition Type
  ,                                       !- Humidity Condition Day Schedule Name
  -3,                                     !- Wetbulb or DewPoint at Maximum Dry-Bulb {C}
  ,                                       !- Humidity Ratio at Maximum Dry-Bulb {kgWater/kgDryAir}
  ,                                       !- Enthalpy at Maximum Dry-Bulb {J/kg}
  ,                                       !- Dry-Bulb Temperature Range Modifier Type
  ,                                       !- Dry-Bulb Temperature Range Modifier Day Schedule Name
  ASHRAEClearSky;                         !- Solar Model Indicator

OS:Material:NoMass,
  {0c069405-c5e6-4456-bde0-8de3aa59ba8c}, !- Handle
  MAT-OPAQUE-REFERENCE,                   !- Name
  MediumSmooth,                           !- Roughness
  2;                                      !- Thermal Resistance {m2-K/W}

OS:Construction,
  {e2776231-9827-42de-abbd-543a14b250ee}, !- Handle
  CON-OPAQUE-REFERENCE,                   !- Name
  ,                                       !- Surface Rendering Name
  {0c069405-c5e6-4456-bde0-8de3aa59ba8c}; !- Layer 1

OS:WindowMaterial:SimpleGlazingSystem,
  {c2680ab7-a1a9-4954-8bf8-4c6ce44661b4}, !- Handle
  MAT-GLAZING-REFERENCE,                  !- Name
  2,                                      !- U-Factor {W/m2-K}
  0.6,                                    !- Solar Heat Gain Coefficient
  0.7;                                    !- Visible Transmittance

OS:Construction,
  {bda69aff-bc9e-4328-b3a1-653592fedc45}, !- Handle
  CON-GLAZING-REFERENCE,                  !- Name
  ,                                       !- Surface Rendering Name
  {c2680ab7-a1a9-4954-8bf8-4c6ce44661b4}; !- Layer 1

OS:Schedule:Ruleset,
  {b5c1da67-efb7-4d04-b633-72638ad4371a}, !- Handle
  SCH-OCCUPANCY-DAILY,                    !- Name
  {be7094e4-2846-49ec-a27c-d2fa923af46f}, !- Schedule Type Limits Name
  {6b0f83aa-681c-44cb-902d-70438a8b0275}; !- Default Day Schedule Name

OS:Schedule:Day,
  {6b0f83aa-681c-44cb-902d-70438a8b0275}, !- Handle
  Schedule Day 1,                         !- Name
  {be7094e4-2846-49ec-a27c-d2fa923af46f}, !- Schedule Type Limits Name
  ,                                       !- Interpolate to Timestep
  8,                                      !- Hour 1
  0,                                      !- Minute 1
  0,                                      !- Value Until Time 1
  18,                                     !- Hour 2
  0,                                      !- Minute 2
  1,                                      !- Value Until Time 2
  24,                                     !- Hour 3
  0,                                      !- Minute 3
  0;                                      !- Value Until Time 3

OS:Schedule:Constant,
  {635cfdb2-b988-4042-948f-f22f307f7681}, !- Handle
  SCH-HEATING-SETPOINT,                   !- Name
  {020d6456-20e9-4044-9fc3-8153afde651f}, !- Schedule Type Limits Name
  20;                                     !- Value

OS:Schedule:Constant,
  {68b6587e-afe3-4b31-8f91-34977b5b50d2}, !- Handle
  SCH-COOLING-SETPOINT,                   !- Name
  {020d6456-20e9-4044-9fc3-8153afde651f}, !- Schedule Type Limits Name
  26;                                     !- Value

OS:Schedule:Constant,
  {e76f06b4-fcbd-4af9-9728-ab64f627e205}, !- Handle
  SCH-ACTIVITY-120-W-PERSON,              !- Name
  {da114e2c-3b98-4edd-a422-bc800d121231}, !- Schedule Type Limits Name
  120;                                    !- Value

OS:People:Definition,
  {235fed41-779c-49da-ba80-e4127a126587}, !- Handle
  LOAD-PEOPLE-0.10-PER-M2,                !- Name
  People/Area,                            !- Number of People Calculation Method
  ,                                       !- Number of People {people}
  0.1,                                    !- People per Space Floor Area {person/m2}
  ,                                       !- Space Floor Area per Person {m2/person}
  0.3;                                    !- Fraction Radiant

OS:Lights:Definition,
  {fd2c0044-82f6-4ae8-97db-05d9d675e3d6}, !- Handle
  LOAD-LIGHTS-8-W-M2,                     !- Name
  Watts/Area,                             !- Design Level Calculation Method
  ,                                       !- Lighting Level {W}
  8,                                      !- Watts per Space Floor Area {W/m2}
  ;                                       !- Watts per Person {W/person}

OS:ElectricEquipment:Definition,
  {2b4f2ace-9e5d-4467-bdbe-cb9dc7a4a9ab}, !- Handle
  LOAD-EQUIPMENT-10-W-M2,                 !- Name
  Watts/Area,                             !- Design Level Calculation Method
  ,                                       !- Design Level {W}
  10,                                     !- Watts per Space Floor Area {W/m2}
  ;                                       !- Watts per Person {W/person}

OS:BuildingStory,
  {c30c8c71-0b86-4860-b74d-a13198b6dd36}, !- Handle
  LEVEL-00,                               !- Name
  0,                                      !- Nominal Z Coordinate {m}
  3,                                      !- Nominal Floor to Floor Height {m}
  ,                                       !- Default Construction Set Name
  ,                                       !- Default Schedule Set Name
  ;                                       !- Group Rendering Name

OS:Space,
  {7f4d34ba-3ea0-4ac5-9a33-2215cc5798bd}, !- Handle
  SPACE-A,                                !- Name
  ,                                       !- Space Type Name
  ,                                       !- Default Construction Set Name
  ,                                       !- Default Schedule Set Name
  ,                                       !- Direction of Relative North {deg}
  ,                                       !- X Origin {m}
  ,                                       !- Y Origin {m}
  ,                                       !- Z Origin {m}
  {c30c8c71-0b86-4860-b74d-a13198b6dd36}, !- Building Story Name
  {903b6b75-f950-493c-97b8-7b1369b51407}, !- Thermal Zone Name
  ,                                       !- Part of Total Floor Area
  {5b75845f-43f0-467a-911f-734f9402bf8f}; !- Design Specification Outdoor Air Object Name

OS:Surface,
  {887ffd93-9a37-47f4-8756-2c5dd53635ea}, !- Handle
  Surface 1,                              !- Name
  Floor,                                  !- Surface Type
  {e2776231-9827-42de-abbd-543a14b250ee}, !- Construction Name
  {7f4d34ba-3ea0-4ac5-9a33-2215cc5798bd}, !- Space Name
  Ground,                                 !- Outside Boundary Condition
  ,                                       !- Outside Boundary Condition Object
  NoSun,                                  !- Sun Exposure
  NoWind,                                 !- Wind Exposure
  ,                                       !- View Factor to Ground
  ,                                       !- Number of Vertices
  0, 0, 0,                                !- X,Y,Z Vertex 1 {m}
  0, 8, 0,                                !- X,Y,Z Vertex 2 {m}
  5, 8, 0,                                !- X,Y,Z Vertex 3 {m}
  5, 0, 0;                                !- X,Y,Z Vertex 4 {m}

OS:Surface,
  {548d03a9-856b-4a88-8756-797bc0a199e8}, !- Handle
  Surface 2,                              !- Name
  Wall,                                   !- Surface Type
  {e2776231-9827-42de-abbd-543a14b250ee}, !- Construction Name
  {7f4d34ba-3ea0-4ac5-9a33-2215cc5798bd}, !- Space Name
  Outdoors,                               !- Outside Boundary Condition
  ,                                       !- Outside Boundary Condition Object
  SunExposed,                             !- Sun Exposure
  WindExposed,                            !- Wind Exposure
  ,                                       !- View Factor to Ground
  ,                                       !- Number of Vertices
  0, 0, 3,                                !- X,Y,Z Vertex 1 {m}
  0, 8, 3,                                !- X,Y,Z Vertex 2 {m}
  0, 8, 0,                                !- X,Y,Z Vertex 3 {m}
  0, 0, 0;                                !- X,Y,Z Vertex 4 {m}

OS:Surface,
  {2fb34b98-67ec-4aa5-a18a-d381fdeceebb}, !- Handle
  Surface 3,                              !- Name
  Wall,                                   !- Surface Type
  {e2776231-9827-42de-abbd-543a14b250ee}, !- Construction Name
  {7f4d34ba-3ea0-4ac5-9a33-2215cc5798bd}, !- Space Name
  Outdoors,                               !- Outside Boundary Condition
  ,                                       !- Outside Boundary Condition Object
  SunExposed,                             !- Sun Exposure
  WindExposed,                            !- Wind Exposure
  ,                                       !- View Factor to Ground
  ,                                       !- Number of Vertices
  0, 8, 3,                                !- X,Y,Z Vertex 1 {m}
  5, 8, 3,                                !- X,Y,Z Vertex 2 {m}
  5, 8, 0,                                !- X,Y,Z Vertex 3 {m}
  0, 8, 0;                                !- X,Y,Z Vertex 4 {m}

OS:Surface,
  {0a077cab-8f58-424c-9cae-8fdb681adfbc}, !- Handle
  Surface 4,                              !- Name
  Wall,                                   !- Surface Type
  {e2776231-9827-42de-abbd-543a14b250ee}, !- Construction Name
  {7f4d34ba-3ea0-4ac5-9a33-2215cc5798bd}, !- Space Name
  Surface,                                !- Outside Boundary Condition
  {4cf8b838-b638-4bc3-bf28-b11ecd60f878}, !- Outside Boundary Condition Object
  NoSun,                                  !- Sun Exposure
  NoWind,                                 !- Wind Exposure
  ,                                       !- View Factor to Ground
  ,                                       !- Number of Vertices
  5, 0, 3,                                !- X,Y,Z Vertex 1 {m}
  5, 0, 0,                                !- X,Y,Z Vertex 2 {m}
  5, 8, 0,                                !- X,Y,Z Vertex 3 {m}
  5, 8, 3;                                !- X,Y,Z Vertex 4 {m}

OS:Surface,
  {74b6aa39-c8e0-4548-8219-49cf89b4a394}, !- Handle
  Surface 5,                              !- Name
  Wall,                                   !- Surface Type
  {e2776231-9827-42de-abbd-543a14b250ee}, !- Construction Name
  {7f4d34ba-3ea0-4ac5-9a33-2215cc5798bd}, !- Space Name
  Outdoors,                               !- Outside Boundary Condition
  ,                                       !- Outside Boundary Condition Object
  SunExposed,                             !- Sun Exposure
  WindExposed,                            !- Wind Exposure
  ,                                       !- View Factor to Ground
  ,                                       !- Number of Vertices
  5, 0, 3,                                !- X,Y,Z Vertex 1 {m}
  0, 0, 3,                                !- X,Y,Z Vertex 2 {m}
  0, 0, 0,                                !- X,Y,Z Vertex 3 {m}
  5, 0, 0;                                !- X,Y,Z Vertex 4 {m}

OS:Surface,
  {d7b4367a-93d5-4449-9789-11eb781af5bb}, !- Handle
  Surface 6,                              !- Name
  RoofCeiling,                            !- Surface Type
  {e2776231-9827-42de-abbd-543a14b250ee}, !- Construction Name
  {7f4d34ba-3ea0-4ac5-9a33-2215cc5798bd}, !- Space Name
  Outdoors,                               !- Outside Boundary Condition
  ,                                       !- Outside Boundary Condition Object
  SunExposed,                             !- Sun Exposure
  WindExposed,                            !- Wind Exposure
  ,                                       !- View Factor to Ground
  ,                                       !- Number of Vertices
  5, 0, 3,                                !- X,Y,Z Vertex 1 {m}
  5, 8, 3,                                !- X,Y,Z Vertex 2 {m}
  0, 8, 3,                                !- X,Y,Z Vertex 3 {m}
  0, 0, 3;                                !- X,Y,Z Vertex 4 {m}

OS:ThermalZone,
  {903b6b75-f950-493c-97b8-7b1369b51407}, !- Handle
  TZ-A,                                   !- Name
  ,                                       !- Multiplier
  ,                                       !- Ceiling Height {m}
  ,                                       !- Volume {m3}
  ,                                       !- Floor Area {m2}
  ,                                       !- Zone Inside Convection Algorithm
  ,                                       !- Zone Outside Convection Algorithm
  ,                                       !- Zone Conditioning Equipment List Name
  {5733fd46-eb1f-4486-a3b8-53b8d9cd7a86}, !- Zone Air Inlet Port List
  {d3cbe979-a7d7-4793-9ba3-2aea0054a564}, !- Zone Air Exhaust Port List
  {c0e0fb1f-3774-4a6c-8063-7108d2a3f4f4}, !- Zone Air Node Name
  {b1bbfd4e-b2ab-4a97-a62f-b48824dc33f3}, !- Zone Return Air Port List
  ,                                       !- Primary Daylighting Control Name
  ,                                       !- Fraction of Zone Controlled by Primary Daylighting Control
  ,                                       !- Secondary Daylighting Control Name
  ,                                       !- Fraction of Zone Controlled by Secondary Daylighting Control
  ,                                       !- Illuminance Map Name
  ,                                       !- Group Rendering Name
  {cfcbf037-f102-47e8-9ffc-605744caf646}, !- Thermostat Name
  Yes;                                    !- Use Ideal Air Loads

OS:Node,
  {50ed4edc-7536-4ba6-999c-4fd7089d7d23}, !- Handle
  Node 1,                                 !- Name
  {c0e0fb1f-3774-4a6c-8063-7108d2a3f4f4}, !- Inlet Port
  ;                                       !- Outlet Port

OS:Connection,
  {c0e0fb1f-3774-4a6c-8063-7108d2a3f4f4}, !- Handle
  {903b6b75-f950-493c-97b8-7b1369b51407}, !- Source Object
  11,                                     !- Outlet Port
  {50ed4edc-7536-4ba6-999c-4fd7089d7d23}, !- Target Object
  2;                                      !- Inlet Port

OS:PortList,
  {5733fd46-eb1f-4486-a3b8-53b8d9cd7a86}, !- Handle
  {903b6b75-f950-493c-97b8-7b1369b51407}; !- HVAC Component

OS:PortList,
  {d3cbe979-a7d7-4793-9ba3-2aea0054a564}, !- Handle
  {903b6b75-f950-493c-97b8-7b1369b51407}; !- HVAC Component

OS:PortList,
  {b1bbfd4e-b2ab-4a97-a62f-b48824dc33f3}, !- Handle
  {903b6b75-f950-493c-97b8-7b1369b51407}; !- HVAC Component

OS:Sizing:Zone,
  {dae090e7-4319-43c7-8d01-e94f2d72d41d}, !- Handle
  {903b6b75-f950-493c-97b8-7b1369b51407}, !- Zone or ZoneList Name
  SupplyAirTemperature,                   !- Zone Cooling Design Supply Air Temperature Input Method
  14,                                     !- Zone Cooling Design Supply Air Temperature {C}
  11.11,                                  !- Zone Cooling Design Supply Air Temperature Difference {deltaC}
  SupplyAirTemperature,                   !- Zone Heating Design Supply Air Temperature Input Method
  40,                                     !- Zone Heating Design Supply Air Temperature {C}
  11.11,                                  !- Zone Heating Design Supply Air Temperature Difference {deltaC}
  0.0085,                                 !- Zone Cooling Design Supply Air Humidity Ratio {kg-H2O/kg-air}
  0.008,                                  !- Zone Heating Design Supply Air Humidity Ratio {kg-H2O/kg-air}
  ,                                       !- Zone Heating Sizing Factor
  ,                                       !- Zone Cooling Sizing Factor
  DesignDay,                              !- Cooling Design Air Flow Method
  ,                                       !- Cooling Design Air Flow Rate {m3/s}
  ,                                       !- Cooling Minimum Air Flow per Zone Floor Area {m3/s-m2}
  ,                                       !- Cooling Minimum Air Flow {m3/s}
  ,                                       !- Cooling Minimum Air Flow Fraction
  DesignDay,                              !- Heating Design Air Flow Method
  ,                                       !- Heating Design Air Flow Rate {m3/s}
  ,                                       !- Heating Maximum Air Flow per Zone Floor Area {m3/s-m2}
  ,                                       !- Heating Maximum Air Flow {m3/s}
  ,                                       !- Heating Maximum Air Flow Fraction
  No,                                     !- Account for Dedicated Outdoor Air System
  NeutralSupplyAir,                       !- Dedicated Outdoor Air System Control Strategy
  autosize,                               !- Dedicated Outdoor Air Low Setpoint Temperature for Design {C}
  autosize,                               !- Dedicated Outdoor Air High Setpoint Temperature for Design {C}
  Sensible Load Only No Latent Load,      !- Zone Load Sizing Method
  HumidityRatioDifference,                !- Zone Latent Cooling Design Supply Air Humidity Ratio Input Method
  ,                                       !- Zone Dehumidification Design Supply Air Humidity Ratio {kgWater/kgDryAir}
  0.005,                                  !- Zone Cooling Design Supply Air Humidity Ratio Difference {kgWater/kgDryAir}
  HumidityRatioDifference,                !- Zone Latent Heating Design Supply Air Humidity Ratio Input Method
  ,                                       !- Zone Humidification Design Supply Air Humidity Ratio {kgWater/kgDryAir}
  0.005,                                  !- Zone Humidification Design Supply Air Humidity Ratio Difference {kgWater/kgDryAir}
  ,                                       !- Zone Humidistat Dehumidification Set Point Schedule Name
  ,                                       !- Zone Humidistat Humidification Set Point Schedule Name
  ,                                       !- Design Zone Air Distribution Effectiveness in Cooling Mode
  ,                                       !- Design Zone Air Distribution Effectiveness in Heating Mode
  ,                                       !- Design Zone Secondary Recirculation Fraction {dimensionless}
  ,                                       !- Design Minimum Zone Ventilation Efficiency {dimensionless}
  Coincident,                             !- Sizing Option
  None,                                   !- Heating Coil Sizing Method
  1;                                      !- Maximum Heating Capacity To Cooling Load Sizing Ratio {W/W}

OS:ZoneHVAC:EquipmentList,
  {fc345f08-4934-4d92-8e0b-93c805702bc4}, !- Handle
  Zone HVAC Equipment List 1,             !- Name
  {903b6b75-f950-493c-97b8-7b1369b51407}; !- Thermal Zone

OS:Space,
  {7d7a3f40-77d9-44a7-b333-f47dc2c5fd7b}, !- Handle
  SPACE-B,                                !- Name
  ,                                       !- Space Type Name
  ,                                       !- Default Construction Set Name
  ,                                       !- Default Schedule Set Name
  ,                                       !- Direction of Relative North {deg}
  ,                                       !- X Origin {m}
  ,                                       !- Y Origin {m}
  ,                                       !- Z Origin {m}
  {c30c8c71-0b86-4860-b74d-a13198b6dd36}, !- Building Story Name
  {b137dcb8-d440-445f-95cb-11c7c83af392}, !- Thermal Zone Name
  ,                                       !- Part of Total Floor Area
  {d1ece67a-3fdd-4585-b6a0-622d0c657938}; !- Design Specification Outdoor Air Object Name

OS:Surface,
  {24d3140b-d39a-4f86-96a8-44091e90ca40}, !- Handle
  Surface 7,                              !- Name
  Floor,                                  !- Surface Type
  {e2776231-9827-42de-abbd-543a14b250ee}, !- Construction Name
  {7d7a3f40-77d9-44a7-b333-f47dc2c5fd7b}, !- Space Name
  Ground,                                 !- Outside Boundary Condition
  ,                                       !- Outside Boundary Condition Object
  NoSun,                                  !- Sun Exposure
  NoWind,                                 !- Wind Exposure
  ,                                       !- View Factor to Ground
  ,                                       !- Number of Vertices
  5, 0, 0,                                !- X,Y,Z Vertex 1 {m}
  5, 8, 0,                                !- X,Y,Z Vertex 2 {m}
  10, 8, 0,                               !- X,Y,Z Vertex 3 {m}
  10, 0, 0;                               !- X,Y,Z Vertex 4 {m}

OS:Surface,
  {4cf8b838-b638-4bc3-bf28-b11ecd60f878}, !- Handle
  Surface 8,                              !- Name
  Wall,                                   !- Surface Type
  {e2776231-9827-42de-abbd-543a14b250ee}, !- Construction Name
  {7d7a3f40-77d9-44a7-b333-f47dc2c5fd7b}, !- Space Name
  Surface,                                !- Outside Boundary Condition
  {0a077cab-8f58-424c-9cae-8fdb681adfbc}, !- Outside Boundary Condition Object
  NoSun,                                  !- Sun Exposure
  NoWind,                                 !- Wind Exposure
  ,                                       !- View Factor to Ground
  ,                                       !- Number of Vertices
  5, 8, 3,                                !- X,Y,Z Vertex 1 {m}
  5, 8, 0,                                !- X,Y,Z Vertex 2 {m}
  5, 0, 0,                                !- X,Y,Z Vertex 3 {m}
  5, 0, 3;                                !- X,Y,Z Vertex 4 {m}

OS:Surface,
  {bf921a61-acae-4a04-ac20-9dcbb6ba28ef}, !- Handle
  Surface 9,                              !- Name
  Wall,                                   !- Surface Type
  {e2776231-9827-42de-abbd-543a14b250ee}, !- Construction Name
  {7d7a3f40-77d9-44a7-b333-f47dc2c5fd7b}, !- Space Name
  Outdoors,                               !- Outside Boundary Condition
  ,                                       !- Outside Boundary Condition Object
  SunExposed,                             !- Sun Exposure
  WindExposed,                            !- Wind Exposure
  ,                                       !- View Factor to Ground
  ,                                       !- Number of Vertices
  5, 8, 3,                                !- X,Y,Z Vertex 1 {m}
  10, 8, 3,                               !- X,Y,Z Vertex 2 {m}
  10, 8, 0,                               !- X,Y,Z Vertex 3 {m}
  5, 8, 0;                                !- X,Y,Z Vertex 4 {m}

OS:Surface,
  {0295af55-e957-4938-9a77-a4a9bf40b139}, !- Handle
  Surface 10,                             !- Name
  Wall,                                   !- Surface Type
  {e2776231-9827-42de-abbd-543a14b250ee}, !- Construction Name
  {7d7a3f40-77d9-44a7-b333-f47dc2c5fd7b}, !- Space Name
  Outdoors,                               !- Outside Boundary Condition
  ,                                       !- Outside Boundary Condition Object
  SunExposed,                             !- Sun Exposure
  WindExposed,                            !- Wind Exposure
  ,                                       !- View Factor to Ground
  ,                                       !- Number of Vertices
  10, 8, 3,                               !- X,Y,Z Vertex 1 {m}
  10, 0, 3,                               !- X,Y,Z Vertex 2 {m}
  10, 0, 0,                               !- X,Y,Z Vertex 3 {m}
  10, 8, 0;                               !- X,Y,Z Vertex 4 {m}

OS:Surface,
  {3da044b9-4a79-4b99-8813-6615a867e506}, !- Handle
  Surface 11,                             !- Name
  Wall,                                   !- Surface Type
  {e2776231-9827-42de-abbd-543a14b250ee}, !- Construction Name
  {7d7a3f40-77d9-44a7-b333-f47dc2c5fd7b}, !- Space Name
  Outdoors,                               !- Outside Boundary Condition
  ,                                       !- Outside Boundary Condition Object
  SunExposed,                             !- Sun Exposure
  WindExposed,                            !- Wind Exposure
  ,                                       !- View Factor to Ground
  ,                                       !- Number of Vertices
  10, 0, 3,                               !- X,Y,Z Vertex 1 {m}
  5, 0, 3,                                !- X,Y,Z Vertex 2 {m}
  5, 0, 0,                                !- X,Y,Z Vertex 3 {m}
  10, 0, 0;                               !- X,Y,Z Vertex 4 {m}

OS:Surface,
  {1a2428d6-534f-45bf-b89d-3da85420cf92}, !- Handle
  Surface 12,                             !- Name
  RoofCeiling,                            !- Surface Type
  {e2776231-9827-42de-abbd-543a14b250ee}, !- Construction Name
  {7d7a3f40-77d9-44a7-b333-f47dc2c5fd7b}, !- Space Name
  Outdoors,                               !- Outside Boundary Condition
  ,                                       !- Outside Boundary Condition Object
  SunExposed,                             !- Sun Exposure
  WindExposed,                            !- Wind Exposure
  ,                                       !- View Factor to Ground
  ,                                       !- Number of Vertices
  10, 0, 3,                               !- X,Y,Z Vertex 1 {m}
  10, 8, 3,                               !- X,Y,Z Vertex 2 {m}
  5, 8, 3,                                !- X,Y,Z Vertex 3 {m}
  5, 0, 3;                                !- X,Y,Z Vertex 4 {m}

OS:ThermalZone,
  {b137dcb8-d440-445f-95cb-11c7c83af392}, !- Handle
  TZ-B,                                   !- Name
  ,                                       !- Multiplier
  ,                                       !- Ceiling Height {m}
  ,                                       !- Volume {m3}
  ,                                       !- Floor Area {m2}
  ,                                       !- Zone Inside Convection Algorithm
  ,                                       !- Zone Outside Convection Algorithm
  ,                                       !- Zone Conditioning Equipment List Name
  {0327716f-e52a-431b-970b-d9a9e4f9c54e}, !- Zone Air Inlet Port List
  {c4eabf61-e539-41f3-8cde-94febb563391}, !- Zone Air Exhaust Port List
  {878aa791-2c8a-4b90-893e-4bc0a9ea5023}, !- Zone Air Node Name
  {09508d1b-0d5d-4219-ac95-4d7406c2b230}, !- Zone Return Air Port List
  ,                                       !- Primary Daylighting Control Name
  ,                                       !- Fraction of Zone Controlled by Primary Daylighting Control
  ,                                       !- Secondary Daylighting Control Name