
OS:Version,
  {fd2ef93b-ad17-4205-b1c9-f0bf92f784d3}, !- Handle
  3.11.0;                                 !- Version Identifier

OS:Building,
  {fc2bb5fe-6102-43a4-9a75-2ce1758af1c8}, !- Handle
  OS-MIN-001,                             !- Name
  ,                                       !- Building Sector Type
  0,                                      !- North Axis {deg}
  ,                                       !- Nominal Floor to Floor Height {m}
  ,                                       !- Space Type Name
  ,                                       !- Default Construction Set Name
  ;                                       !- Default Schedule Set Name

OS:YearDescription,
  {377665d5-7fa8-46b6-b59d-e2c19c23f50e}, !- Handle
  2024,                                   !- Calendar Year
  ,                                       !- Day of Week for Start Day
  ;                                       !- Is Leap Year

OS:Site,
  {17fc223c-c3cf-46ec-812b-9b203c190202}, !- Handle
  Madrid-Barajas Reference,               !- Name
  40.47,                                  !- Latitude {deg}
  -3.56,                                  !- Longitude {deg}
  1,                                      !- Time Zone {hr}
  609,                                    !- Elevation {m}
  ;                                       !- Terrain

OS:SizingPeriod:DesignDay,
  {9b17a02d-c3a7-483e-acb1-c0ba8e0c09bd}, !- Handle
  MADRID-SUMMER-REFERENCE,                !- Name
  36,                                     !- Maximum Dry-Bulb Temperature {C}
  12,                                     !- Daily Dry-Bulb Temperature Range {deltaC}
  101325,                                 !- Barometric Pressure {Pa}
  3,                                      !- Wind Speed {m/s}
  180,                                    !- Wind Direction {deg}
  1,                                      !- Sky Clearness
  No,                                     !- Rain Indicator
  No,                                     !- Snow Indicator
  21,                                     !- Day of Month
  7,                                      !- Month
  SummerDesignDay,                        !- Day Type
  ,                                       !- Daylight Saving Time Indicator
  Wetbulb,                                !- Humidity Condition Type
  ,                                       !- Humidity Condition Day Schedule Name
  20,                                     !- Wetbulb or DewPoint at Maximum Dry-Bulb {C}
  ,                                       !- Humidity Ratio at Maximum Dry-Bulb {kgWater/kgDryAir}
  ,                                       !- Enthalpy at Maximum Dry-Bulb {J/kg}
  ,                                       !- Dry-Bulb Temperature Range Modifier Type
  ,                                       !- Dry-Bulb Temperature Range Modifier Day Schedule Name
  ASHRAEClearSky;                         !- Solar Model Indicator

OS:SizingPeriod:DesignDay,
  {dfb13938-8fca-4834-8153-7b0d332ac4ae}, !- Handle
  MADRID-WINTER-REFERENCE,                !- Name
  -3,                                     !- Maximum Dry-Bulb Temperature {C}
  0,                                      !- Daily Dry-Bulb Temperature Range {deltaC}
  101325,                                 !- Barometric Pressure {Pa}
  4,                                      !- Wind Speed {m/s}
  0,                                      !- Wind Direction {deg}
  0,                                      !- Sky Clearness
  No,                                     !- Rain Indicator
  No,                                     !- Snow Indicator
  21,                                     !- Day of Month
  1,                                      !- Month
  WinterDesignDay,                        !- Day Type
  ,                                       !- Daylight Saving Time Indicator
  Wetbulb,                                !- Humidity Condition Type
  ,                                       !- Humidity Condition Day Schedule Name
  -3,                                     !- Wetbulb or DewPoint at Maximum Dry-Bulb {C}
  ,                                       !- Humidity Ratio at Maximum Dry-Bulb {kgWater/kgDryAir}
  ,                                       !- Enthalpy at Maximum Dry-Bulb {J/kg}
  ,                                       !- Dry-Bulb Temperature Range Modifier Type
  ,                                       !- Dry-Bulb Temperature Range Modifier Day Schedule Name
  ASHRAEClearSky;                         !- Solar Model Indicator

OS:Material:NoMass,
  {99b74372-5cc4-4360-ad83-b1f04fb4e6da}, !- Handle
  MAT-OPAQUE-REFERENCE,                   !- Name
  MediumSmooth,                           !- Roughness
  2;                                      !- Thermal Resistance {m2-K/W}

OS:Construction,
  {605c2ad4-5698-4d18-8db1-ca75b80dae5d}, !- Handle
  CON-OPAQUE-REFERENCE,                   !- Name
  ,                                       !- Surface Rendering Name
  {99b74372-5cc4-4360-ad83-b1f04fb4e6da}; !- Layer 1

OS:WindowMaterial:SimpleGlazingSystem,
  {3f2c16e2-c671-412d-83af-9adcdfbb1d99}, !- Handle
  MAT-GLAZING-REFERENCE,                  !- Name
  2,                                      !- U-Factor {W/m2-K}
  0.6,                                    !- Solar Heat Gain Coefficient
  0.7;                                    !- Visible Transmittance

OS:Construction,
  {b5b4da16-f61a-4756-8951-6ca20c734be9}, !- Handle
  CON-GLAZING-REFERENCE,                  !- Name
  ,                                       !- Surface Rendering Name
  {3f2c16e2-c671-412d-83af-9adcdfbb1d99}; !- Layer 1

OS:Schedule:Ruleset,
  {f9852c01-4891-4380-b575-acbd79556544}, !- Handle
  SCH-OCCUPANCY-DAILY,                    !- Name
  {c03ba2e6-0fa7-43b2-b659-b406b32a5a95}, !- Schedule Type Limits Name
  {b4364941-4f76-46c9-903d-d568359bc3ef}; !- Default Day Schedule Name

OS:Schedule:Day,
  {b4364941-4f76-46c9-903d-d568359bc3ef}, !- Handle
  Schedule Day 1,                         !- Name
  {c03ba2e6-0fa7-43b2-b659-b406b32a5a95}, !- Schedule Type Limits Name
  ,                                       !- Interpolate to Timestep
  8,                                      !- Hour 1
  0,                                      !- Minute 1
  0,                                      !- Value Until Time 1
  18,                                     !- Hour 2
  0,                                      !- Minute 2
  1,                                      !- Value Until Time 2
  24,                                     !- Hour 3
  0,                                      !- Minute 3
  0;                                      !- Value Until Time 3

OS:Schedule:Constant,
  {aa24d8eb-090d-436d-9d81-9c66a3a0204b}, !- Handle
  SCH-HEATING-SETPOINT,                   !- Name
  {7c961a89-2424-4838-988c-c82775cf5352}, !- Schedule Type Limits Name
  20;                                     !- Value

OS:Schedule:Constant,
  {2383925d-e00e-423c-994e-bf4f76b45bb2}, !- Handle
  SCH-COOLING-SETPOINT,                   !- Name
  {7c961a89-2424-4838-988c-c82775cf5352}, !- Schedule Type Limits Name
  26;                                     !- Value

OS:Schedule:Constant,
  {cf47303a-7c33-4d84-8d9a-034004b5f0a6}, !- Handle
  SCH-ACTIVITY-120-W-PERSON,              !- Name
  {8c11e539-56d9-404c-86c6-93d2059f7981}, !- Schedule Type Limits Name
  120;                                    !- Value

OS:People:Definition,
  {21c517ba-f7f0-49f6-90d6-1646584a4256}, !- Handle
  LOAD-PEOPLE-0.10-PER-M2,                !- Name
  People/Area,                            !- Number of People Calculation Method
  ,                                       !- Number of People {people}
  0.1,                                    !- People per Space Floor Area {person/m2}
  ,                                       !- Space Floor Area per Person {m2/person}
  0.3;                                    !- Fraction Radiant

OS:Lights:Definition,
  {8de9a54d-198b-44da-b846-ad4c66dc1341}, !- Handle
  LOAD-LIGHTS-8-W-M2,                     !- Name
  Watts/Area,                             !- Design Level Calculation Method
  ,                                       !- Lighting Level {W}
  8,                                      !- Watts per Space Floor Area {W/m2}
  ;                                       !- Watts per Person {W/person}

OS:ElectricEquipment:Definition,
  {098c3428-a818-46e7-a665-87211cee6efa}, !- Handle
  LOAD-EQUIPMENT-10-W-M2,                 !- Name
  Watts/Area,                             !- Design Level Calculation Method
  ,                                       !- Design Level {W}
  10,                                     !- Watts per Space Floor Area {W/m2}
  ;                                       !- Watts per Person {W/person}

OS:BuildingStory,
  {1564cc79-2fff-4b1f-bae4-95b132600a27}, !- Handle
  LEVEL-00,                               !- Name
  0,                                      !- Nominal Z Coordinate {m}
  3,                                      !- Nominal Floor to Floor Height {m}
  ,                                       !- Default Construction Set Name
  ,                                       !- Default Schedule Set Name
  ;                                       !- Group Rendering Name

OS:Space,
  {c607a743-84a7-4674-885a-1d1d8af1a838}, !- Handle
  SPACE-A,                                !- Name
  ,                                       !- Space Type Name
  ,                                       !- Default Construction Set Name
  ,                                       !- Default Schedule Set Name
  ,                                       !- Direction of Relative North {deg}
  ,                                       !- X Origin {m}
  ,                                       !- Y Origin {m}
  ,                                       !- Z Origin {m}
  {1564cc79-2fff-4b1f-bae4-95b132600a27}, !- Building Story Name
  {171478e1-e11a-4661-9cdb-f57773d32f4c}, !- Thermal Zone Name
  ,                                       !- Part of Total Floor Area
  {69c40145-0565-4915-942f-201e8ad81a67}; !- Design Specification Outdoor Air Object Name

OS:Surface,
  {7e83fc7b-3633-4393-aee9-42fbd9a46a7c}, !- Handle
  Surface 1,                              !- Name
  Floor,                                  !- Surface Type
  {605c2ad4-5698-4d18-8db1-ca75b80dae5d}, !- Construction Name
  {c607a743-84a7-4674-885a-1d1d8af1a838}, !- Space Name
  Ground,                                 !- Outside Boundary Condition
  ,                                       !- Outside Boundary Condition Object
  NoSun,                                  !- Sun Exposure
  NoWind,                                 !- Wind Exposure
  ,                                       !- View Factor to Ground
  ,                                       !- Number of Vertices
  0, 0, 0,                                !- X,Y,Z Vertex 1 {m}
  0, 8, 0,                                !- X,Y,Z Vertex 2 {m}
  5, 8, 0,                                !- X,Y,Z Vertex 3 {m}
  5, 0, 0;                                !- X,Y,Z Vertex 4 {m}

OS:Surface,
  {3ab8b044-88b1-4b46-89c4-4c6984349866}, !- Handle
  Surface 2,                              !- Name
  Wall,                                   !- Surface Type
  {605c2ad4-5698-4d18-8db1-ca75b80dae5d}, !- Construction Name
  {c607a743-84a7-4674-885a-1d1d8af1a838}, !- Space Name
  Outdoors,                               !- Outside Boundary Condition
  ,                                       !- Outside Boundary Condition Object
  SunExposed,                             !- Sun Exposure
  WindExposed,                            !- Wind Exposure
  ,                                       !- View Factor to Ground
  ,                                       !- Number of Vertices
  0, 0, 3,                                !- X,Y,Z Vertex 1 {m}
  0, 8, 3,                                !- X,Y,Z Vertex 2 {m}
  0, 8, 0,                                !- X,Y,Z Vertex 3 {m}
  0, 0, 0;                                !- X,Y,Z Vertex 4 {m}

OS:Surface,
  {525fe43b-57b4-4a18-a218-caba0924d8ca}, !- Handle
  Surface 3,                              !- Name
  Wall,                                   !- Surface Type
  {605c2ad4-5698-4d18-8db1-ca75b80dae5d}, !- Construction Name
  {c607a743-84a7-4674-885a-1d1d8af1a838}, !- Space Name
  Outdoors,                               !- Outside Boundary Condition
  ,                                       !- Outside Boundary Condition Object
  SunExposed,                             !- Sun Exposure
  WindExposed,                            !- Wind Exposure
  ,                                       !- View Factor to Ground
  ,                                       !- Number of Vertices
  0, 8, 3,                                !- X,Y,Z Vertex 1 {m}
  5, 8, 3,                                !- X,Y,Z Vertex 2 {m}
  5, 8, 0,                                !- X,Y,Z Vertex 3 {m}
  0, 8, 0;                                !- X,Y,Z Vertex 4 {m}

OS:Surface,
  {a5d6c6d0-d769-48a9-bbb5-c334f894dbdb}, !- Handle
  Surface 4,                              !- Name
  Wall,                                   !- Surface Type
  {605c2ad4-5698-4d18-8db1-ca75b80dae5d}, !- Construction Name
  {c607a743-84a7-4674-885a-1d1d8af1a838}, !- Space Name
  Surface,                                !- Outside Boundary Condition
  {3775a7f3-1e32-4140-9994-7c49cd29ddc3}, !- Outside Boundary Condition Object
  NoSun,                                  !- Sun Exposure
  NoWind,                                 !- Wind Exposure
  ,                                       !- View Factor to Ground
  ,                                       !- Number of Vertices
  5, 0, 3,                                !- X,Y,Z Vertex 1 {m}
  5, 0, 0,                                !- X,Y,Z Vertex 2 {m}
  5, 8, 0,                                !- X,Y,Z Vertex 3 {m}
  5, 8, 3;                                !- X,Y,Z Vertex 4 {m}

OS:Surface,
  {91e512bd-e76b-4095-87ee-23fb2b734545}, !- Handle
  Surface 5,                              !- Name
  Wall,                                   !- Surface Type
  {605c2ad4-5698-4d18-8db1-ca75b80dae5d}, !- Construction Name
  {c607a743-84a7-4674-885a-1d1d8af1a838}, !- Space Name
  Outdoors,                               !- Outside Boundary Condition
  ,                                       !- Outside Boundary Condition Object
  SunExposed,                             !- Sun Exposure
  WindExposed,                            !- Wind Exposure
  ,                                       !- View Factor to Ground
  ,                                       !- Number of Vertices
  5, 0, 3,                                !- X,Y,Z Vertex 1 {m}
  0, 0, 3,                                !- X,Y,Z Vertex 2 {m}
  0, 0, 0,                                !- X,Y,Z Vertex 3 {m}
  5, 0, 0;                                !- X,Y,Z Vertex 4 {m}

OS:Surface,
  {8f689a64-9775-47c1-95c6-7c4a9ae13128}, !- Handle
  Surface 6,                              !- Name
  RoofCeiling,                            !- Surface Type
  {605c2ad4-5698-4d18-8db1-ca75b80dae5d}, !- Construction Name
  {c607a743-84a7-4674-885a-1d1d8af1a838}, !- Space Name
  Outdoors,                               !- Outside Boundary Condition
  ,                                       !- Outside Boundary Condition Object
  SunExposed,                             !- Sun Exposure
  WindExposed,                            !- Wind Exposure
  ,                                       !- View Factor to Ground
  ,                                       !- Number of Vertices
  5, 0, 3,                                !- X,Y,Z Vertex 1 {m}
  5, 8, 3,                                !- X,Y,Z Vertex 2 {m}
  0, 8, 3,                                !- X,Y,Z Vertex 3 {m}
  0, 0, 3;                                !- X,Y,Z Vertex 4 {m}

OS:ThermalZone,
  {171478e1-e11a-4661-9cdb-f57773d32f4c}, !- Handle
  TZ-A,                                   !- Name
  ,                                       !- Multiplier
  ,                                       !- Ceiling Height {m}
  ,                                       !- Volume {m3}
  ,                                       !- Floor Area {m2}
  ,                                       !- Zone Inside Convection Algorithm
  ,                                       !- Zone Outside Convection Algorithm
  ,                                       !- Zone Conditioning Equipment List Name
  {288ca7c4-f50e-472a-8b9e-abfa2bdd8c82}, !- Zone Air Inlet Port List
  {14fb6453-f3b8-42d0-93fa-468f1e27bf4c}, !- Zone Air Exhaust Port List
  {9904024a-8787-480d-bf7d-ca0cea6f6ce0}, !- Zone Air Node Name
  {c1c30d01-4d67-4b9b-b09c-3c3f02badbe5}, !- Zone Return Air Port List
  ,                                       !- Primary Daylighting Control Name
  ,                                       !- Fraction of Zone Controlled by Primary Daylighting Control
  ,                                       !- Secondary Daylighting Control Name
  ,                                       !- Fraction of Zone Controlled by Secondary Daylighting Control
  ,                                       !- Illuminance Map Name
  ,                                       !- Group Rendering Name
  {bc14d69d-b2db-4b79-9d20-0aebf92a238a}, !- Thermostat Name
  Yes;                                    !- Use Ideal Air Loads

OS:Node,
  {ea241c24-4fa8-4e5b-8aac-0423bda14a2e}, !- Handle
  Node 1,                                 !- Name
  {9904024a-8787-480d-bf7d-ca0cea6f6ce0}, !- Inlet Port
  ;                                       !- Outlet Port

OS:Connection,
  {9904024a-8787-480d-bf7d-ca0cea6f6ce0}, !- Handle
  {171478e1-e11a-4661-9cdb-f57773d32f4c}, !- Source Object
  11,                                     !- Outlet Port
  {ea241c24-4fa8-4e5b-8aac-0423bda14a2e}, !- Target Object
  2;                                      !- Inlet Port

OS:PortList,
  {288ca7c4-f50e-472a-8b9e-abfa2bdd8c82}, !- Handle
  {171478e1-e11a-4661-9cdb-f57773d32f4c}; !- HVAC Component

OS:PortList,
  {14fb6453-f3b8-42d0-93fa-468f1e27bf4c}, !- Handle
  {171478e1-e11a-4661-9cdb-f57773d32f4c}; !- HVAC Component

OS:PortList,
  {c1c30d01-4d67-4b9b-b09c-3c3f02badbe5}, !- Handle
  {171478e1-e11a-4661-9cdb-f57773d32f4c}; !- HVAC Component

OS:Sizing:Zone,
  {e4ad5472-8bf2-4caf-8e8b-d562700cd429}, !- Handle
  {171478e1-e11a-4661-9cdb-f57773d32f4c}, !- Zone or ZoneList Name
  SupplyAirTemperature,                   !- Zone Cooling Design Supply Air Temperature Input Method
  14,                                     !- Zone Cooling Design Supply Air Temperature {C}
  11.11,                                  !- Zone Cooling Design Supply Air Temperature Difference {deltaC}
  SupplyAirTemperature,                   !- Zone Heating Design Supply Air Temperature Input Method
  40,                                     !- Zone Heating Design Supply Air Temperature {C}
  11.11,                                  !- Zone Heating Design Supply Air Temperature Difference {deltaC}
  0.0085,                                 !- Zone Cooling Design Supply Air Humidity Ratio {kg-H2O/kg-air}
  0.008,                                  !- Zone Heating Design Supply Air Humidity Ratio {kg-H2O/kg-air}
  ,                                       !- Zone Heating Sizing Factor
  ,                                       !- Zone Cooling Sizing Factor
  DesignDay,                              !- Cooling Design Air Flow Method
  ,                                       !- Cooling Design Air Flow Rate {m3/s}
  ,                                       !- Cooling Minimum Air Flow per Zone Floor Area {m3/s-m2}
  ,                                       !- Cooling Minimum Air Flow {m3/s}
  ,                                       !- Cooling Minimum Air Flow Fraction
  DesignDay,                              !- Heating Design Air Flow Method
  ,                                       !- Heating Design Air Flow Rate {m3/s}
  ,                                       !- Heating Maximum Air Flow per Zone Floor Area {m3/s-m2}
  ,                                       !- Heating Maximum Air Flow {m3/s}
  ,                                       !- Heating Maximum Air Flow Fraction
  No,                                     !- Account for Dedicated Outdoor Air System
  NeutralSupplyAir,                       !- Dedicated Outdoor Air System Control Strategy
  autosize,                               !- Dedicated Outdoor Air Low Setpoint Temperature for Design {C}
  autosize,                               !- Dedicated Outdoor Air High Setpoint Temperature for Design {C}
  Sensible Load Only No Latent Load,      !- Zone Load Sizing Method
  HumidityRatioDifference,                !- Zone Latent Cooling Design Supply Air Humidity Ratio Input Method
  ,                                       !- Zone Dehumidification Design Supply Air Humidity Ratio {kgWater/kgDryAir}
  0.005,                                  !- Zone Cooling Design Supply Air Humidity Ratio Difference {kgWater/kgDryAir}
  HumidityRatioDifference,                !- Zone Latent Heating Design Supply Air Humidity Ratio Input Method
  ,                                       !- Zone Humidification Design Supply Air Humidity Ratio {kgWater/kgDryAir}
  0.005,                                  !- Zone Humidification Design Supply Air Humidity Ratio Difference {kgWater/kgDryAir}
  ,                                       !- Zone Humidistat Dehumidification Set Point Schedule Name
  ,                                       !- Zone Humidistat Humidification Set Point Schedule Name
  ,                                       !- Design Zone Air Distribution Effectiveness in Cooling Mode
  ,                                       !- Design Zone Air Distribution Effectiveness in Heating Mode
  ,                                       !- Design Zone Secondary Recirculation Fraction {dimensionless}
  ,                                       !- Design Minimum Zone Ventilation Efficiency {dimensionless}
  Coincident,                             !- Sizing Option
  None,                                   !- Heating Coil Sizing Method
  1;                                      !- Maximum Heating Capacity To Cooling Load Sizing Ratio {W/W}

OS:ZoneHVAC:EquipmentList,
  {130c33bd-7e71-4151-b176-ffb7d442b5cf}, !- Handle
  Zone HVAC Equipment List 1,             !- Name
  {171478e1-e11a-4661-9cdb-f57773d32f4c}; !- Thermal Zone

OS:Space,
  {170b0a93-f568-4593-b5e3-e8834c6a12b6}, !- Handle
  SPACE-B,                                !- Name
  ,                                       !- Space Type Name
  ,                                       !- Default Construction Set Name
  ,                                       !- Default Schedule Set Name
  ,                                       !- Direction of Relative North {deg}
  ,                                       !- X Origin {m}
  ,                                       !- Y Origin {m}
  ,                                       !- Z Origin {m}
  {1564cc79-2fff-4b1f-bae4-95b132600a27}, !- Building Story Name
  {0504c0f8-0dc1-4899-9d2f-b8ea99f664b7}, !- Thermal Zone Name
  ,                                       !- Part of Total Floor Area
  {a510fa9d-5812-4e66-bb2d-9fda6847c176}; !- Design Specification Outdoor Air Object Name

OS:Surface,
  {979ec6a7-82b0-4482-91ca-e93b9833ede3}, !- Handle
  Surface 7,                              !- Name
  Floor,                                  !- Surface Type
  {605c2ad4-5698-4d18-8db1-ca75b80dae5d}, !- Construction Name
  {170b0a93-f568-4593-b5e3-e8834c6a12b6}, !- Space Name
  Ground,                                 !- Outside Boundary Condition
  ,                                       !- Outside Boundary Condition Object
  NoSun,                                  !- Sun Exposure
  NoWind,                                 !- Wind Exposure
  ,                                       !- View Factor to Ground
  ,                                       !- Number of Vertices
  5, 0, 0,                                !- X,Y,Z Vertex 1 {m}
  5, 8, 0,                                !- X,Y,Z Vertex 2 {m}
  10, 8, 0,                               !- X,Y,Z Vertex 3 {m}
  10, 0, 0;                               !- X,Y,Z Vertex 4 {m}

OS:Surface,
  {3775a7f3-1e32-4140-9994-7c49cd29ddc3}, !- Handle
  Surface 8,                              !- Name
  Wall,                                   !- Surface Type
  {605c2ad4-5698-4d18-8db1-ca75b80dae5d}, !- Construction Name
  {170b0a93-f568-4593-b5e3-e8834c6a12b6}, !- Space Name
  Surface,                                !- Outside Boundary Condition
  {a5d6c6d0-d769-48a9-bbb5-c334f894dbdb}, !- Outside Boundary Condition Object
  NoSun,                                  !- Sun Exposure
  NoWind,                                 !- Wind Exposure
  ,                                       !- View Factor to Ground
  ,                                       !- Number of Vertices
  5, 8, 3,                                !- X,Y,Z Vertex 1 {m}
  5, 8, 0,                                !- X,Y,Z Vertex 2 {m}
  5, 0, 0,                                !- X,Y,Z Vertex 3 {m}
  5, 0, 3;                                !- X,Y,Z Vertex 4 {m}

OS:Surface,
  {46dbe28f-29d5-4067-b881-f47afb9e8f4c}, !- Handle
  Surface 9,                              !- Name
  Wall,                                   !- Surface Type
  {605c2ad4-5698-4d18-8db1-ca75b80dae5d}, !- Construction Name
  {170b0a93-f568-4593-b5e3-e8834c6a12b6}, !- Space Name
  Outdoors,                               !- Outside Boundary Condition
  ,                                       !- Outside Boundary Condition Object
  SunExposed,                             !- Sun Exposure
  WindExposed,                            !- Wind Exposure
  ,                                       !- View Factor to Ground
  ,                                       !- Number of Vertices
  5, 8, 3,                                !- X,Y,Z Vertex 1 {m}
  10, 8, 3,                               !- X,Y,Z Vertex 2 {m}
  10, 8, 0,                               !- X,Y,Z Vertex 3 {m}
  5, 8, 0;                                !- X,Y,Z Vertex 4 {m}

OS:Surface,
  {ebb1d99f-d0c3-4200-bc19-a9b738fd8cfd}, !- Handle
  Surface 10,                             !- Name
  Wall,                                   !- Surface Type
  {605c2ad4-5698-4d18-8db1-ca75b80dae5d}, !- Construction Name
  {170b0a93-f568-4593-b5e3-e8834c6a12b6}, !- Space Name
  Outdoors,                               !- Outside Boundary Condition
  ,                                       !- Outside Boundary Condition Object
  SunExposed,                             !- Sun Exposure
  WindExposed,                            !- Wind Exposure
  ,                                       !- View Factor to Ground
  ,                                       !- Number of Vertices
  10, 8, 3,                               !- X,Y,Z Vertex 1 {m}
  10, 0, 3,                               !- X,Y,Z Vertex 2 {m}
  10, 0, 0,                               !- X,Y,Z Vertex 3 {m}
  10, 8, 0;                               !- X,Y,Z Vertex 4 {m}

OS:Surface,
  {5b57aeab-761a-480d-83f1-718f9609503d}, !- Handle
  Surface 11,                             !- Name
  Wall,                                   !- Surface Type
  {605c2ad4-5698-4d18-8db1-ca75b80dae5d}, !- Construction Name
  {170b0a93-f568-4593-b5e3-e8834c6a12b6}, !- Space Name
  Outdoors,                               !- Outside Boundary Condition
  ,                                       !- Outside Boundary Condition Object
  SunExposed,                             !- Sun Exposure
  WindExposed,                            !- Wind Exposure
  ,                                       !- View Factor to Ground
  ,                                       !- Number of Vertices
  10, 0, 3,                               !- X,Y,Z Vertex 1 {m}
  5, 0, 3,                                !- X,Y,Z Vertex 2 {m}
  5, 0, 0,                                !- X,Y,Z Vertex 3 {m}
  10, 0, 0;                               !- X,Y,Z Vertex 4 {m}

OS:Surface,
  {33c9a4b6-fc41-46cc-acd9-1e94fd671499}, !- Handle
  Surface 12,                             !- Name
  RoofCeiling,                            !- Surface Type
  {605c2ad4-5698-4d18-8db1-ca75b80dae5d}, !- Construction Name
  {170b0a93-f568-4593-b5e3-e8834c6a12b6}, !- Space Name
  Outdoors,                               !- Outside Boundary Condition
  ,                                       !- Outside Boundary Condition Object
  SunExposed,                             !- Sun Exposure
  WindExposed,                            !- Wind Exposure
  ,                                       !- View Factor to Ground
  ,                                       !- Number of Vertices
  10, 0, 3,                               !- X,Y,Z Vertex 1 {m}
  10, 8, 3,                               !- X,Y,Z Vertex 2 {m}
  5, 8, 3,                                !- X,Y,Z Vertex 3 {m}
  5, 0, 3;                                !- X,Y,Z Vertex 4 {m}

OS:ThermalZone,
  {0504c0f8-0dc1-4899-9d2f-b8ea99f664b7}, !- Handle
  TZ-B,                                   !- Name
  ,                                       !- Multiplier
  ,                                       !- Ceiling Height {m}
  ,                                       !- Volume {m3}
  ,                                       !- Floor Area {m2}
  ,                                       !- Zone Inside Convection Algorithm
  ,                                       !- Zone Outside Convection Algorithm
  ,                                       !- Zone Conditioning Equipment List Name
  {b111d417-dc41-4477-b369-ac3ffbad671f}, !- Zone Air Inlet Port List
  {e3075014-299e-4568-b293-b9c715959030}, !- Zone Air Exhaust Port List
  {fe5e630a-2dd2-443c-b4ad-7ec1aa31905e}, !- Zone Air Node Name
  {1ca4fbb7-1585-4d4e-bbb3-831fba3c3769}, !- Zone Return Air Port List
  ,                                       !- Primary Daylighting Control Name
  ,                                       !- Fraction of Zone Controlled by Primary Daylighting Control
  ,                                       !- Secondary Daylighting Control Name