
OS:Version,
  {0f3e2c59-723b-41f8-8ecf-037f799ccf9f}, !- Handle
  3.11.0;                                 !- Version Identifier

OS:Building,
  {77505ec2-25a1-478f-b466-878752fe0cfe}, !- Handle
  OS-MIN-001,                             !- Name
  ,                                       !- Building Sector Type
  0,                                      !- North Axis {deg}
  ,                                       !- Nominal Floor to Floor Height {m}
  ,                                       !- Space Type Name
  ,                                       !- Default Construction Set Name
  ;                                       !- Default Schedule Set Name

OS:YearDescription,
  {01791eeb-701e-423e-bfa3-67b72f5439bf}, !- Handle
  2024,                                   !- Calendar Year
  ,                                       !- Day of Week for Start Day
  ;                                       !- Is Leap Year

OS:Site,
  {03875eca-d791-4c78-8378-d5be817e887e}, !- Handle
  Madrid-Barajas Reference,               !- Name
  40.47,                                  !- Latitude {deg}
  -3.56,                                  !- Longitude {deg}
  1,                                      !- Time Zone {hr}
  609,                                    !- Elevation {m}
  ;                                       !- Terrain

OS:SizingPeriod:DesignDay,
  {c72d3eef-7a22-40af-9985-be0e614cff20}, !- Handle
  MADRID-SUMMER-REFERENCE,                !- Name
  36,                                     !- Maximum Dry-Bulb Temperature {C}
  12,                                     !- Daily Dry-Bulb Temperature Range {deltaC}
  101325,                                 !- Barometric Pressure {Pa}
  3,                                      !- Wind Speed {m/s}
  180,                                    !- Wind Direction {deg}
  1,                                      !- Sky Clearness
  No,                                     !- Rain Indicator
  No,                                     !- Snow Indicator
  21,                                     !- Day of Month
  7,                                      !- Month
  SummerDesignDay,                        !- Day Type
  ,                                       !- Daylight Saving Time Indicator
  Wetbulb,                                !- Humidity Condition Type
  ,                                       !- Humidity Condition Day Schedule Name
  20,                                     !- Wetbulb or DewPoint at Maximum Dry-Bulb {C}
  ,                                       !- Humidity Ratio at Maximum Dry-Bulb {kgWater/kgDryAir}
  ,                                       !- Enthalpy at Maximum Dry-Bulb {J/kg}
  ,                                       !- Dry-Bulb Temperature Range Modifier Type
  ,                                       !- Dry-Bulb Temperature Range Modifier Day Schedule Name
  ASHRAEClearSky;                         !- Solar Model Indicator

OS:SizingPeriod:DesignDay,
  {b8a47887-38f6-45e6-96f4-d889f78101c1}, !- Handle
  MADRID-WINTER-REFERENCE,                !- Name
  -3,                                     !- Maximum Dry-Bulb Temperature {C}
  0,                                      !- Daily Dry-Bulb Temperature Range {deltaC}
  101325,                                 !- Barometric Pressure {Pa}
  4,                                      !- Wind Speed {m/s}
  0,                                      !- Wind Direction {deg}
  0,                                      !- Sky Clearness
  No,                                     !- Rain Indicator
  No,                                     !- Snow Indicator
  21,                                     !- Day of Month
  1,                                      !- Month
  WinterDesignDay,                        !- Day Type
  ,                                       !- Daylight Saving Time Indicator
  Wetbulb,                                !- Humidity Condition Type
  ,                                       !- Humidity Condition Day Schedule Name
  -3,                                     !- Wetbulb or DewPoint at Maximum Dry-Bulb {C}
  ,                                       !- Humidity Ratio at Maximum Dry-Bulb {kgWater/kgDryAir}
  ,                                       !- Enthalpy at Maximum Dry-Bulb {J/kg}
  ,                                       !- Dry-Bulb Temperature Range Modifier Type
  ,                                       !- Dry-Bulb Temperature Range Modifier Day Schedule Name
  ASHRAEClearSky;                         !- Solar Model Indicator

OS:Material,
  {e8ce35f4-a06f-42b4-a284-2cbe27a2ed76}, !- Handle
  MAT-OPAQUE-REFERENCE,                   !- Name
  MediumSmooth,                           !- Roughness
  0.2,                                    !- Thickness {m}
  1,                                      !- Conductivity {W/m-K}
  1000,                                   !- Density {kg/m3}
  1000;                                   !- Specific Heat {J/kg-K}

OS:Construction,
  {b8fcc8ed-88f8-4708-a6ea-2d93fba9461b}, !- Handle
  CON-OPAQUE-REFERENCE,                   !- Name
  ,                                       !- Surface Rendering Name
  {e8ce35f4-a06f-42b4-a284-2cbe27a2ed76}; !- Layer 1

OS:WindowMaterial:SimpleGlazingSystem,
  {278a3e71-f1af-46a5-977a-c34ad79bb523}, !- Handle
  MAT-GLAZING-REFERENCE,                  !- Name
  2,                                      !- U-Factor {W/m2-K}
  0.6,                                    !- Solar Heat Gain Coefficient
  0.7;                                    !- Visible Transmittance

OS:Construction,
  {e0281137-eecb-433f-aa2a-69b40c42be71}, !- Handle
  CON-GLAZING-REFERENCE,                  !- Name
  ,                                       !- Surface Rendering Name
  {278a3e71-f1af-46a5-977a-c34ad79bb523}; !- Layer 1

OS:BuildingStory,
  {665737fe-d524-422c-8f54-c9c7ab2122f6}, !- Handle
  LEVEL-00,                               !- Name
  0,                                      !- Nominal Z Coordinate {m}
  3,                                      !- Nominal Floor to Floor Height {m}
  ,                                       !- Default Construction Set Name
  ,                                       !- Default Schedule Set Name
  ;                                       !- Group Rendering Name

OS:Space,
  {b0f463d0-941d-487d-9950-88d1685b9ad6}, !- Handle
  SPACE-A,                                !- Name
  ,                                       !- Space Type Name
  ,                                       !- Default Construction Set Name
  ,                                       !- Default Schedule Set Name
  ,                                       !- Direction of Relative North {deg}
  ,                                       !- X Origin {m}
  ,                                       !- Y Origin {m}
  ,                                       !- Z Origin {m}
  {665737fe-d524-422c-8f54-c9c7ab2122f6}, !- Building Story Name
  {3f6b87f7-73c9-4010-94be-a7ecd8041dfc}; !- Thermal Zone Name

OS:Surface,
  {db009da8-80bf-49ea-8a94-e6753cf3d08a}, !- Handle
  Surface 1,                              !- Name
  Floor,                                  !- Surface Type
  {b8fcc8ed-88f8-4708-a6ea-2d93fba9461b}, !- Construction Name
  {b0f463d0-941d-487d-9950-88d1685b9ad6}, !- Space Name
  Ground,                                 !- Outside Boundary Condition
  ,                                       !- Outside Boundary Condition Object
  NoSun,                                  !- Sun Exposure
  NoWind,                                 !- Wind Exposure
  ,                                       !- View Factor to Ground
  ,                                       !- Number of Vertices
  0, 0, 0,                                !- X,Y,Z Vertex 1 {m}
  0, 8, 0,                                !- X,Y,Z Vertex 2 {m}
  5, 8, 0,                                !- X,Y,Z Vertex 3 {m}
  5, 0, 0;                                !- X,Y,Z Vertex 4 {m}

OS:Surface,
  {1dd1f02e-1a54-4b13-a15d-14ef9bdb1512}, !- Handle
  Surface 2,                              !- Name
  Wall,                                   !- Surface Type
  {b8fcc8ed-88f8-4708-a6ea-2d93fba9461b}, !- Construction Name
  {b0f463d0-941d-487d-9950-88d1685b9ad6}, !- Space Name
  Outdoors,                               !- Outside Boundary Condition
  ,                                       !- Outside Boundary Condition Object
  SunExposed,                             !- Sun Exposure
  WindExposed,                            !- Wind Exposure
  ,                                       !- View Factor to Ground
  ,                                       !- Number of Vertices
  0, 0, 3,                                !- X,Y,Z Vertex 1 {m}
  0, 8, 3,                                !- X,Y,Z Vertex 2 {m}
  0, 8, 0,                                !- X,Y,Z Vertex 3 {m}
  0, 0, 0;                                !- X,Y,Z Vertex 4 {m}

OS:Surface,
  {739f2dee-1cff-4fc7-9cc8-08aba49feb18}, !- Handle
  Surface 3,                              !- Name
  Wall,                                   !- Surface Type
  {b8fcc8ed-88f8-4708-a6ea-2d93fba9461b}, !- Construction Name
  {b0f463d0-941d-487d-9950-88d1685b9ad6}, !- Space Name
  Outdoors,                               !- Outside Boundary Condition
  ,                                       !- Outside Boundary Condition Object
  SunExposed,                             !- Sun Exposure
  WindExposed,                            !- Wind Exposure
  ,                                       !- View Factor to Ground
  ,                                       !- Number of Vertices
  0, 8, 3,                                !- X,Y,Z Vertex 1 {m}
  5, 8, 3,                                !- X,Y,Z Vertex 2 {m}
  5, 8, 0,                                !- X,Y,Z Vertex 3 {m}
  0, 8, 0;                                !- X,Y,Z Vertex 4 {m}

OS:Surface,
  {504c6c32-9a37-4278-b2ea-2fd96f22c0d5}, !- Handle
  Surface 4,                              !- Name
  Wall,                                   !- Surface Type
  {b8fcc8ed-88f8-4708-a6ea-2d93fba9461b}, !- Construction Name
  {b0f463d0-941d-487d-9950-88d1685b9ad6}, !- Space Name
  Surface,                                !- Outside Boundary Condition
  {4fbcbdf9-695c-4c5f-99af-ea1cae88b46d}, !- Outside Boundary Condition Object
  NoSun,                                  !- Sun Exposure
  NoWind,                                 !- Wind Exposure
  ,                                       !- View Factor to Ground
  ,                                       !- Number of Vertices
  5, 0, 3,                                !- X,Y,Z Vertex 1 {m}
  5, 0, 0,                                !- X,Y,Z Vertex 2 {m}
  5, 8, 0,                                !- X,Y,Z Vertex 3 {m}
  5, 8, 3;                                !- X,Y,Z Vertex 4 {m}

OS:Surface,
  {d33d1d69-572b-44ec-8fd5-e65c277af3cb}, !- Handle
  Surface 5,                              !- Name
  Wall,                                   !- Surface Type
  {b8fcc8ed-88f8-4708-a6ea-2d93fba9461b}, !- Construction Name
  {b0f463d0-941d-487d-9950-88d1685b9ad6}, !- Space Name
  Outdoors,                               !- Outside Boundary Condition
  ,                                       !- Outside Boundary Condition Object
  SunExposed,                             !- Sun Exposure
  WindExposed,                            !- Wind Exposure
  ,                                       !- View Factor to Ground
  ,                                       !- Number of Vertices
  5, 0, 3,                                !- X,Y,Z Vertex 1 {m}
  0, 0, 3,                                !- X,Y,Z Vertex 2 {m}
  0, 0, 0,                                !- X,Y,Z Vertex 3 {m}
  5, 0, 0;                                !- X,Y,Z Vertex 4 {m}

OS:Surface,
  {cf95f899-f11c-4b20-b631-a47cc7436d4b}, !- Handle
  Surface 6,                              !- Name
  RoofCeiling,                            !- Surface Type
  {b8fcc8ed-88f8-4708-a6ea-2d93fba9461b}, !- Construction Name
  {b0f463d0-941d-487d-9950-88d1685b9ad6}, !- Space Name
  Outdoors,                               !- Outside Boundary Condition
  ,                                       !- Outside Boundary Condition Object
  SunExposed,                             !- Sun Exposure
  WindExposed,                            !- Wind Exposure
  ,                                       !- View Factor to Ground
  ,                                       !- Number of Vertices
  5, 0, 3,                                !- X,Y,Z Vertex 1 {m}
  5, 8, 3,                                !- X,Y,Z Vertex 2 {m}
  0, 8, 3,                                !- X,Y,Z Vertex 3 {m}
  0, 0, 3;                                !- X,Y,Z Vertex 4 {m}

OS:ThermalZone,
  {3f6b87f7-73c9-4010-94be-a7ecd8041dfc}, !- Handle
  TZ-A,                                   !- Name
  ,                                       !- Multiplier
  ,                                       !- Ceiling Height {m}
  ,                                       !- Volume {m3}
  ,                                       !- Floor Area {m2}
  ,                                       !- Zone Inside Convection Algorithm
  ,                                       !- Zone Outside Convection Algorithm
  ,                                       !- Zone Conditioning Equipment List Name
  {bbbd4d45-862d-4a23-9083-240c2eee4def}, !- Zone Air Inlet Port List
  {58432863-6056-4867-8733-48bc4e180d86}, !- Zone Air Exhaust Port List
  {2ed74c2f-0af2-471c-9993-d99a61cfb98d}, !- Zone Air Node Name
  {e909c136-0d98-4b6c-adf4-38b0828f14b1}, !- Zone Return Air Port List
  ,                                       !- Primary Daylighting Control Name
  ,                                       !- Fraction of Zone Controlled by Primary Daylighting Control
  ,                                       !- Secondary Daylighting Control Name
  ,                                       !- Fraction of Zone Controlled by Secondary Daylighting Control
  ,                                       !- Illuminance Map Name
  ,                                       !- Group Rendering Name
  ,                                       !- Thermostat Name
  Yes;                                    !- Use Ideal Air Loads

OS:Node,
  {5d433cb7-e40e-490e-8754-de84d510273e}, !- Handle
  Node 1,                                 !- Name
  {2ed74c2f-0af2-471c-9993-d99a61cfb98d}, !- Inlet Port
  ;                                       !- Outlet Port

OS:Connection,
  {2ed74c2f-0af2-471c-9993-d99a61cfb98d}, !- Handle
  {3f6b87f7-73c9-4010-94be-a7ecd8041dfc}, !- Source Object
  11,                                     !- Outlet Port
  {5d433cb7-e40e-490e-8754-de84d510273e}, !- Target Object
  2;                                      !- Inlet Port

OS:PortList,
  {bbbd4d45-862d-4a23-9083-240c2eee4def}, !- Handle
  {3f6b87f7-73c9-4010-94be-a7ecd8041dfc}; !- HVAC Component

OS:PortList,
  {58432863-6056-4867-8733-48bc4e180d86}, !- Handle
  {3f6b87f7-73c9-4010-94be-a7ecd8041dfc}; !- HVAC Component

OS:PortList,
  {e909c136-0d98-4b6c-adf4-38b0828f14b1}, !- Handle
  {3f6b87f7-73c9-4010-94be-a7ecd8041dfc}; !- HVAC Component

OS:Sizing:Zone,
  {a0c11bb0-7bca-4899-94f7-0a434335da46}, !- Handle
  {3f6b87f7-73c9-4010-94be-a7ecd8041dfc}, !- Zone or ZoneList Name
  SupplyAirTemperature,                   !- Zone Cooling Design Supply Air Temperature Input Method
  14,                                     !- Zone Cooling Design Supply Air Temperature {C}
  11.11,                                  !- Zone Cooling Design Supply Air Temperature Difference {deltaC}
  SupplyAirTemperature,                   !- Zone Heating Design Supply Air Temperature Input Method
  40,                                     !- Zone Heating Design Supply Air Temperature {C}
  11.11,                                  !- Zone Heating Design Supply Air Temperature Difference {deltaC}
  0.0085,                                 !- Zone Cooling Design Supply Air Humidity Ratio {kg-H2O/kg-air}
  0.008,                                  !- Zone Heating Design Supply Air Humidity Ratio {kg-H2O/kg-air}
  ,                                       !- Zone Heating Sizing Factor
  ,                                       !- Zone Cooling Sizing Factor
  DesignDay,                              !- Cooling Design Air Flow Method
  ,                                       !- Cooling Design Air Flow Rate {m3/s}
  ,                                       !- Cooling Minimum Air Flow per Zone Floor Area {m3/s-m2}
  ,                                       !- Cooling Minimum Air Flow {m3/s}
  ,                                       !- Cooling Minimum Air Flow Fraction
  DesignDay,                              !- Heating Design Air Flow Method
  ,                                       !- Heating Design Air Flow Rate {m3/s}
  ,                                       !- Heating Maximum Air Flow per Zone Floor Area {m3/s-m2}
  ,                                       !- Heating Maximum Air Flow {m3/s}
  ,                                       !- Heating Maximum Air Flow Fraction
  No,                                     !- Account for Dedicated Outdoor Air System
  NeutralSupplyAir,                       !- Dedicated Outdoor Air System Control Strategy
  autosize,                               !- Dedicated Outdoor Air Low Setpoint Temperature for Design {C}
  autosize,                               !- Dedicated Outdoor Air High Setpoint Temperature for Design {C}
  Sensible Load Only No Latent Load,      !- Zone Load Sizing Method
  HumidityRatioDifference,                !- Zone Latent Cooling Design Supply Air Humidity Ratio Input Method
  ,                                       !- Zone Dehumidification Design Supply Air Humidity Ratio {kgWater/kgDryAir}
  0.005,                                  !- Zone Cooling Design Supply Air Humidity Ratio Difference {kgWater/kgDryAir}
  HumidityRatioDifference,                !- Zone Latent Heating Design Supply Air Humidity Ratio Input Method
  ,                                       !- Zone Humidification Design Supply Air Humidity Ratio {kgWater/kgDryAir}
  0.005,                                  !- Zone Humidification Design Supply Air Humidity Ratio Difference {kgWater/kgDryAir}
  ,                                       !- Zone Humidistat Dehumidification Set Point Schedule Name
  ,                                       !- Zone Humidistat Humidification Set Point Schedule Name
  ,                                       !- Design Zone Air Distribution Effectiveness in Cooling Mode
  ,                                       !- Design Zone Air Distribution Effectiveness in Heating Mode
  ,                                       !- Design Zone Secondary Recirculation Fraction {dimensionless}
  ,                                       !- Design Minimum Zone Ventilation Efficiency {dimensionless}
  Coincident,                             !- Sizing Option
  None,                                   !- Heating Coil Sizing Method
  1;                                      !- Maximum Heating Capacity To Cooling Load Sizing Ratio {W/W}

OS:ZoneHVAC:EquipmentList,
  {3cc2ad83-9b86-4ddf-9316-f39aeb156437}, !- Handle
  Zone HVAC Equipment List 1,             !- Name
  {3f6b87f7-73c9-4010-94be-a7ecd8041dfc}; !- Thermal Zone

OS:Space,
  {9ffecd6b-c659-4cb0-a42b-278505f6baf5}, !- Handle
  SPACE-B,                                !- Name
  ,                                       !- Space Type Name
  ,                                       !- Default Construction Set Name
  ,                                       !- Default Schedule Set Name
  ,                                       !- Direction of Relative North {deg}
  ,                                       !- X Origin {m}
  ,                                       !- Y Origin {m}
  ,                                       !- Z Origin {m}
  {665737fe-d524-422c-8f54-c9c7ab2122f6}, !- Building Story Name
  {59ab7d04-5104-4936-bc8c-8286ea333e7d}; !- Thermal Zone Name

OS:Surface,
  {269f5ab2-e916-4511-8da0-23187c55acff}, !- Handle
  Surface 7,                              !- Name
  Floor,                                  !- Surface Type
  {b8fcc8ed-88f8-4708-a6ea-2d93fba9461b}, !- Construction Name
  {9ffecd6b-c659-4cb0-a42b-278505f6baf5}, !- Space Name
  Ground,                                 !- Outside Boundary Condition
  ,                                       !- Outside Boundary Condition Object
  NoSun,                                  !- Sun Exposure
  NoWind,                                 !- Wind Exposure
  ,                                       !- View Factor to Ground
  ,                                       !- Number of Vertices
  5, 0, 0,                                !- X,Y,Z Vertex 1 {m}
  5, 8, 0,                                !- X,Y,Z Vertex 2 {m}
  10, 8, 0,                               !- X,Y,Z Vertex 3 {m}
  10, 0, 0;                               !- X,Y,Z Vertex 4 {m}

OS:Surface,
  {4fbcbdf9-695c-4c5f-99af-ea1cae88b46d}, !- Handle
  Surface 8,                              !- Name
  Wall,                                   !- Surface Type
  {b8fcc8ed-88f8-4708-a6ea-2d93fba9461b}, !- Construction Name
  {9ffecd6b-c659-4cb0-a42b-278505f6baf5}, !- Space Name
  Surface,                                !- Outside Boundary Condition
  {504c6c32-9a37-4278-b2ea-2fd96f22c0d5}, !- Outside Boundary Condition Object
  NoSun,                                  !- Sun Exposure
  NoWind,                                 !- Wind Exposure
  ,                                       !- View Factor to Ground
  ,                                       !- Number of Vertices
  5, 8, 3,                                !- X,Y,Z Vertex 1 {m}
  5, 8, 0,                                !- X,Y,Z Vertex 2 {m}
  5, 0, 0,                                !- X,Y,Z Vertex 3 {m}
  5, 0, 3;                                !- X,Y,Z Vertex 4 {m}

OS:Surface,
  {24700107-72ae-4e6e-be89-afaac77e4fc6}, !- Handle
  Surface 9,                              !- Name
  Wall,                                   !- Surface Type
  {b8fcc8ed-88f8-4708-a6ea-2d93fba9461b}, !- Construction Name
  {9ffecd6b-c659-4cb0-a42b-278505f6baf5}, !- Space Name
  Outdoors,                               !- Outside Boundary Condition
  ,                                       !- Outside Boundary Condition Object
  SunExposed,                             !- Sun Exposure
  WindExposed,                            !- Wind Exposure
  ,                                       !- View Factor to Ground
  ,                                       !- Number of Vertices
  5, 8, 3,                                !- X,Y,Z Vertex 1 {m}
  10, 8, 3,                               !- X,Y,Z Vertex 2 {m}
  10, 8, 0,                               !- X,Y,Z Vertex 3 {m}
  5, 8, 0;                                !- X,Y,Z Vertex 4 {m}

OS:Surface,
  {d5b6607e-33e6-4e2b-9302-d2ef4ae26292}, !- Handle
  Surface 10,                             !- Name
  Wall,                                   !- Surface Type
  {b8fcc8ed-88f8-4708-a6ea-2d93fba9461b}, !- Construction Name
  {9ffecd6b-c659-4cb0-a42b-278505f6baf5}, !- Space Name
  Outdoors,                               !- Outside Boundary Condition
  ,                                       !- Outside Boundary Condition Object
  SunExposed,                             !- Sun Exposure
  WindExposed,                            !- Wind Exposure
  ,                                       !- View Factor to Ground
  ,                                       !- Number of Vertices
  10, 8, 3,                               !- X,Y,Z Vertex 1 {m}
  10, 0, 3,                               !- X,Y,Z Vertex 2 {m}
  10, 0, 0,                               !- X,Y,Z Vertex 3 {m}
  10, 8, 0;                               !- X,Y,Z Vertex 4 {m}

OS:Surface,
  {c8736a2d-d02c-447f-b2f3-6fbda145cb28}, !- Handle
  Surface 11,                             !- Name
  Wall,                                   !- Surface Type
  {b8fcc8ed-88f8-4708-a6ea-2d93fba9461b}, !- Construction Name
  {9ffecd6b-c659-4cb0-a42b-278505f6baf5}, !- Space Name
  Outdoors,                               !- Outside Boundary Condition
  ,                                       !- Outside Boundary Condition Object
  SunExposed,                             !- Sun Exposure
  WindExposed,                            !- Wind Exposure
  ,                                       !- View Factor to Ground
  ,                                       !- Number of Vertices
  10, 0, 3,                               !- X,Y,Z Vertex 1 {m}
  5, 0, 3,                                !- X,Y,Z Vertex 2 {m}
  5, 0, 0,                                !- X,Y,Z Vertex 3 {m}
  10, 0, 0;                               !- X,Y,Z Vertex 4 {m}

OS:Surface,
  {df8fe541-b646-4161-a35d-3aabbc11f61e}, !- Handle
  Surface 12,                             !- Name
  RoofCeiling,                            !- Surface Type
  {b8fcc8ed-88f8-4708-a6ea-2d93fba9461b}, !- Construction Name
  {9ffecd6b-c659-4cb0-a42b-278505f6baf5}, !- Space Name
  Outdoors,                               !- Outside Boundary Condition
  ,                                       !- Outside Boundary Condition Object
  SunExposed,                             !- Sun Exposure
  WindExposed,                            !- Wind Exposure
  ,                                       !- View Factor to Ground
  ,                                       !- Number of Vertices
  10, 0, 3,                               !- X,Y,Z Vertex 1 {m}
  10, 8, 3,                               !- X,Y,Z Vertex 2 {m}
  5, 8, 3,                                !- X,Y,Z Vertex 3 {m}
  5, 0, 3;                                !- X,Y,Z Vertex 4 {m}

OS:ThermalZone,
  {59ab7d04-5104-4936-bc8c-8286ea333e7d}, !- Handle
  TZ-B,                                   !- Name
  ,                                       !- Multiplier
  ,                                       !- Ceiling Height {m}
  ,                                       !- Volume {m3}
  ,                                       !- Floor Area {m2}
  ,                                       !- Zone Inside Convection Algorithm
  ,                                       !- Zone Outside Convection Algorithm
  ,                                       !- Zone Conditioning Equipment List Name
  {d152e573-5efd-4f0c-b326-1670bd937080}, !- Zone Air Inlet Port List
  {57029e6a-f21a-484a-a766-c4a0600ab33f}, !- Zone Air Exhaust Port List
  {6b2bd683-52bd-4157-963c-99863d905a38}, !- Zone Air Node Name
  {7d41523a-1332-4a2d-88b8-7a7ab0e87284}, !- Zone Return Air Port List
  ,                                       !- Primary Daylighting Control Name
  ,                                       !- Fraction of Zone Controlled by Primary Daylighting Control
  ,                                       !- Secondary Daylighting Control Name
  ,                                       !- Fraction of Zone Controlled by Secondary Daylighting Control
  ,                                       !- Illuminance Map Name
  ,                                       !- Group Rendering Name
  ,                                       !- Thermostat Name
  Yes;                                    !- Use Ideal Air Loads

OS:Node,
  {6ff125d0-3d7b-470f-b13f-f4d966d9ec98}, !- Handle
  Node 2,                                 !- Name
  {6b2bd683-52bd-4157-963c-99863d905a38}, !- Inlet Port
  ;                                       !- Outlet Port

OS:Connection,
  {6b2bd683-52bd-4157-963c-99863d905a38}, !- Handle
  {59ab7d04-5104-4936-bc8c-8286ea333e7d}, !- Source Object
  11,                                     !- Outlet Port
  {6ff125d0-3d7b-470f-b13f-f4d966d9ec98}, !- Target Object
  2;                                      !- Inlet Port

OS:PortList,
  {d152e573-5efd-4f0c-b326-1670bd937080}, !- Handle
  {59ab7d04-5104-4936-bc8c-8286ea333e7d}; !- HVAC Component

OS:PortList,
  {57029e6a-f21a-484a-a766-c4a0600ab33f}, !- Handle
  {59ab7d04-5104-4936-bc8c-8286ea333e7d}; !- HVAC Component

OS:PortList,
  {7d41523a-1332-4a2d-88b8-7a7ab0e87284}, !- Handle
  {59ab7d04-5104-4936-bc8c-8286ea333e7d}; !- HVAC Component

OS:Sizing:Zone,
  {33a4fd7a-c9ca-4547-bd66-3f8892b7d203}, !- Handle
  {59ab7d04-5104-4936-bc8c-8286ea333e7d}, !- Zone or ZoneList Name
  SupplyAirTemperature,                   !- Zone Cooling Design Supply Air Temperature Input Method
  14,                                     !- Zone Cooling Design Supply Air Temperature {C}
  11.11,                                  !- Zone Cooling Design Supply Air Temperature Difference {deltaC}
  SupplyAirTemperature,                   !- Zone Heating Design Supply Air Temperature Input Method
  40,                                     !- Zone Heating Design Supply Air Temperature {C}
  11.11,                                  !- Zone Heating Design Supply Air Temperature Difference {deltaC}
  0.0085,                                 !- Zone Cooling Design Supply Air Humidity Ratio {kg-H2O/kg-air}
  0.008,                                  !- Zone Heating Design Supply Air Humidity Ratio {kg-H2O/kg-air}
  ,                                       !- Zone Heating Sizing Factor
  ,                                       !- Zone Cooling Sizing Factor
  DesignDay,                              !- Cooling Design Air Flow Method
  ,                                       !- Cooling Design Air Flow Rate {m3/s}
  ,                                       !- Cooling Minimum Air Flow per Zone Floor Area {m3/s-m2}
  ,                                       !- Cooling Minimum Air Flow {m3/s}
  ,                                       !- Cooling Minimum Air Flow Fraction
  DesignDay,                              !- Heating Design Air Flow Method
  ,                                       !- Heating Design Air Flow Rate {m3/s}
  ,                                       !- Heating Maximum Air Flow per Zone Floor Area {m3/s-m2}
  ,                                       !- Heating Maximum Air Flow {m3/s}
  ,                                       !- Heating Maximum Air Flow Fraction
  No,                                     !- Account for Dedicated Outdoor Air System